# generated using pymatgen
data_Na32P33
_symmetry_space_group_name_H-M   'P 1'
_cell_length_a   22.37299232
_cell_length_b   24.11260336
_cell_length_c   20.14288700
_cell_angle_alpha   90.00000000
_cell_angle_beta   90.00000000
_cell_angle_gamma   90.00000000
_symmetry_Int_Tables_number   1
_chemical_formula_structural   Na32P33
_chemical_formula_sum   'Na256 P264'
_cell_volume   10866.50519760
_cell_formula_units_Z   8
loop_
 _symmetry_equiv_pos_site_id
 _symmetry_equiv_pos_as_xyz
  1  'x, y, z'
loop_
 _atom_site_type_symbol
 _atom_site_label
 _atom_site_symmetry_multiplicity
 _atom_site_fract_x
 _atom_site_fract_y
 _atom_site_fract_z
 _atom_site_occupancy
  Na  Na0  1  0.28551620  0.40784361  0.14056127  1
  Na  Na1  1  0.28551620  0.40784361  0.64056127  1
  Na  Na2  1  0.28551620  0.90784361  0.14056127  1
  Na  Na3  1  0.28551620  0.90784361  0.64056127  1
  Na  Na4  1  0.78551620  0.40784361  0.14056127  1
  Na  Na5  1  0.78551620  0.40784361  0.64056127  1
  Na  Na6  1  0.78551620  0.90784361  0.14056127  1
  Na  Na7  1  0.78551620  0.90784361  0.64056127  1
  Na  Na8  1  0.28835955  0.16059048  0.14360496  1
  Na  Na9  1  0.28835955  0.16059048  0.64360496  1
  Na  Na10  1  0.28835955  0.66059048  0.14360496  1
  Na  Na11  1  0.28835955  0.66059048  0.64360496  1
  Na  Na12  1  0.78835955  0.16059048  0.14360496  1
  Na  Na13  1  0.78835955  0.16059048  0.64360496  1
  Na  Na14  1  0.78835955  0.66059048  0.14360496  1
  Na  Na15  1  0.78835955  0.66059048  0.64360496  1
  Na  Na16  1  0.04103696  0.43344530  0.13355285  1
  Na  Na17  1  0.04103696  0.43344530  0.63355285  1
  Na  Na18  1  0.04103696  0.93344530  0.13355285  1
  Na  Na19  1  0.04103696  0.93344530  0.63355285  1
  Na  Na20  1  0.54103696  0.43344530  0.13355285  1
  Na  Na21  1  0.54103696  0.43344530  0.63355285  1
  Na  Na22  1  0.54103696  0.93344530  0.13355285  1
  Na  Na23  1  0.54103696  0.93344530  0.63355285  1
  Na  Na24  1  0.04090513  0.17084978  0.14019605  1
  Na  Na25  1  0.04090513  0.17084978  0.64019605  1
  Na  Na26  1  0.04090513  0.67084978  0.14019605  1
  Na  Na27  1  0.04090513  0.67084978  0.64019605  1
  Na  Na28  1  0.54090513  0.17084978  0.14019605  1
  Na  Na29  1  0.54090513  0.17084978  0.64019605  1
  Na  Na30  1  0.54090513  0.67084978  0.14019605  1
  Na  Na31  1  0.54090513  0.67084978  0.64019605  1
  Na  Na32  1  0.39193698  0.42953924  0.38923213  1
  Na  Na33  1  0.39193698  0.42953924  0.88923213  1
  Na  Na34  1  0.39193698  0.92953924  0.38923213  1
  Na  Na35  1  0.39193698  0.92953924  0.88923213  1
  Na  Na36  1  0.89193698  0.42953924  0.38923213  1
  Na  Na37  1  0.89193698  0.42953924  0.88923213  1
  Na  Na38  1  0.89193698  0.92953924  0.38923213  1
  Na  Na39  1  0.89193698  0.92953924  0.88923213  1
  Na  Na40  1  0.41487909  0.21021629  0.35825908  1
  Na  Na41  1  0.41487909  0.21021629  0.85825908  1
  Na  Na42  1  0.41487909  0.71021629  0.35825908  1
  Na  Na43  1  0.41487909  0.71021629  0.85825908  1
  Na  Na44  1  0.91487909  0.21021629  0.35825908  1
  Na  Na45  1  0.91487909  0.21021629  0.85825908  1
  Na  Na46  1  0.91487909  0.71021629  0.35825908  1
  Na  Na47  1  0.91487909  0.71021629  0.85825908  1
  Na  Na48  1  0.16628062  0.45031282  0.35883056  1
  Na  Na49  1  0.16628062  0.45031282  0.85883056  1
  Na  Na50  1  0.16628062  0.95031282  0.35883056  1
  Na  Na51  1  0.16628062  0.95031282  0.85883056  1
  Na  Na52  1  0.66628062  0.45031282  0.35883056  1
  Na  Na53  1  0.66628062  0.45031282  0.85883056  1
  Na  Na54  1  0.66628062  0.95031282  0.35883056  1
  Na  Na55  1  0.66628062  0.95031282  0.85883056  1
  Na  Na56  1  0.16875788  0.21142433  0.35831003  1
  Na  Na57  1  0.16875788  0.21142433  0.85831003  1
  Na  Na58  1  0.16875788  0.71142433  0.35831003  1
  Na  Na59  1  0.16875788  0.71142433  0.85831003  1
  Na  Na60  1  0.66875788  0.21142433  0.35831003  1
  Na  Na61  1  0.66875788  0.21142433  0.85831003  1
  Na  Na62  1  0.66875788  0.71142433  0.35831003  1
  Na  Na63  1  0.66875788  0.71142433  0.85831003  1
  Na  Na64  1  0.46242555  0.29711349  0.10828178  1
  Na  Na65  1  0.46242555  0.29711349  0.60828178  1
  Na  Na66  1  0.46242555  0.79711349  0.10828178  1
  Na  Na67  1  0.46242555  0.79711349  0.60828178  1
  Na  Na68  1  0.96242555  0.29711349  0.10828178  1
  Na  Na69  1  0.96242555  0.29711349  0.60828178  1
  Na  Na70  1  0.96242555  0.79711349  0.10828178  1
  Na  Na71  1  0.96242555  0.79711349  0.60828178  1
  Na  Na72  1  0.46062372  0.05271842  0.10911390  1
  Na  Na73  1  0.46062372  0.05271842  0.60911390  1
  Na  Na74  1  0.46062372  0.55271842  0.10911390  1
  Na  Na75  1  0.46062372  0.55271842  0.60911390  1
  Na  Na76  1  0.96062372  0.05271842  0.10911390  1
  Na  Na77  1  0.96062372  0.05271842  0.60911390  1
  Na  Na78  1  0.96062372  0.55271842  0.10911390  1
  Na  Na79  1  0.96062372  0.55271842  0.60911390  1
  Na  Na80  1  0.21192693  0.28964376  0.10541264  1
  Na  Na81  1  0.21192693  0.28964376  0.60541264  1
  Na  Na82  1  0.21192693  0.78964376  0.10541264  1
  Na  Na83  1  0.21192693  0.78964376  0.60541264  1
  Na  Na84  1  0.71192693  0.28964376  0.10541264  1
  Na  Na85  1  0.71192693  0.28964376  0.60541264  1
  Na  Na86  1  0.71192693  0.78964376  0.10541264  1
  Na  Na87  1  0.71192693  0.78964376  0.60541264  1
  Na  Na88  1  0.21991014  0.02687490  0.09485465  1
  Na  Na89  1  0.21991014  0.02687490  0.59485465  1
  Na  Na90  1  0.21991014  0.52687490  0.09485465  1
  Na  Na91  1  0.21991014  0.52687490  0.59485465  1
  Na  Na92  1  0.71991014  0.02687490  0.09485465  1
  Na  Na93  1  0.71991014  0.02687490  0.59485465  1
  Na  Na94  1  0.71991014  0.52687490  0.09485465  1
  Na  Na95  1  0.71991014  0.52687490  0.59485465  1
  Na  Na96  1  0.32643010  0.31264430  0.37889240  1
  Na  Na97  1  0.32643010  0.31264430  0.87889240  1
  Na  Na98  1  0.32643010  0.81264430  0.37889240  1
  Na  Na99  1  0.32643010  0.81264430  0.87889240  1
  Na  Na100  1  0.82643010  0.31264430  0.37889240  1
  Na  Na101  1  0.82643010  0.31264430  0.87889240  1
  Na  Na102  1  0.82643010  0.81264430  0.37889240  1
  Na  Na103  1  0.82643010  0.81264430  0.87889240  1
  Na  Na104  1  0.34196175  0.07929872  0.38929863  1
  Na  Na105  1  0.34196175  0.07929872  0.88929863  1
  Na  Na106  1  0.34196175  0.57929872  0.38929863  1
  Na  Na107  1  0.34196175  0.57929872  0.88929863  1
  Na  Na108  1  0.84196175  0.07929872  0.38929863  1
  Na  Na109  1  0.84196175  0.07929872  0.88929863  1
  Na  Na110  1  0.84196175  0.57929872  0.38929863  1
  Na  Na111  1  0.84196175  0.57929872  0.88929863  1
  Na  Na112  1  0.08488891  0.32725991  0.38774539  1
  Na  Na113  1  0.08488891  0.32725991  0.88774539  1
  Na  Na114  1  0.08488891  0.82725991  0.38774539  1
  Na  Na115  1  0.08488891  0.82725991  0.88774539  1
  Na  Na116  1  0.58488891  0.32725991  0.38774539  1
  Na  Na117  1  0.58488891  0.32725991  0.88774539  1
  Na  Na118  1  0.58488891  0.82725991  0.38774539  1
  Na  Na119  1  0.58488891  0.82725991  0.88774539  1
  Na  Na120  1  0.08883444  0.08791727  0.39055721  1
  Na  Na121  1  0.08883444  0.08791727  0.89055721  1
  Na  Na122  1  0.08883444  0.58791727  0.39055721  1
  Na  Na123  1  0.08883444  0.58791727  0.89055721  1
  Na  Na124  1  0.58883444  0.08791727  0.39055721  1
  Na  Na125  1  0.58883444  0.08791727  0.89055721  1
  Na  Na126  1  0.58883444  0.58791727  0.39055721  1
  Na  Na127  1  0.58883444  0.58791727  0.89055721  1
  Na  Na128  1  0.47074822  0.33986090  0.29157011  1
  Na  Na129  1  0.47074822  0.33986090  0.79157011  1
  Na  Na130  1  0.47074822  0.83986090  0.29157011  1
  Na  Na131  1  0.47074822  0.83986090  0.79157011  1
  Na  Na132  1  0.97074822  0.33986090  0.29157011  1
  Na  Na133  1  0.97074822  0.33986090  0.79157011  1
  Na  Na134  1  0.97074822  0.83986090  0.29157011  1
  Na  Na135  1  0.97074822  0.83986090  0.79157011  1
  Na  Na136  1  0.47258971  0.10867553  0.29961511  1
  Na  Na137  1  0.47258971  0.10867553  0.79961511  1
  Na  Na138  1  0.47258971  0.60867553  0.29961511  1
  Na  Na139  1  0.47258971  0.60867553  0.79961511  1
  Na  Na140  1  0.97258971  0.10867553  0.29961511  1
  Na  Na141  1  0.97258971  0.10867553  0.79961511  1
  Na  Na142  1  0.97258971  0.60867553  0.29961511  1
  Na  Na143  1  0.97258971  0.60867553  0.79961511  1
  Na  Na144  1  0.21689307  0.34634791  0.28445732  1
  Na  Na145  1  0.21689307  0.34634791  0.78445732  1
  Na  Na146  1  0.21689307  0.84634791  0.28445732  1
  Na  Na147  1  0.21689307  0.84634791  0.78445732  1
  Na  Na148  1  0.71689307  0.34634791  0.28445732  1
  Na  Na149  1  0.71689307  0.34634791  0.78445732  1
  Na  Na150  1  0.71689307  0.84634791  0.28445732  1
  Na  Na151  1  0.71689307  0.84634791  0.78445732  1
  Na  Na152  1  0.22358221  0.09762688  0.29431120  1
  Na  Na153  1  0.22358221  0.09762688  0.79431120  1
  Na  Na154  1  0.22358221  0.59762688  0.29431120  1
  Na  Na155  1  0.22358221  0.59762688  0.79431120  1
  Na  Na156  1  0.72358221  0.09762688  0.29431120  1
  Na  Na157  1  0.72358221  0.09762688  0.79431120  1
  Na  Na158  1  0.72358221  0.59762688  0.29431120  1
  Na  Na159  1  0.72358221  0.59762688  0.79431120  1
  Na  Na160  1  0.34703809  0.27486439  0.20268095  1
  Na  Na161  1  0.34703809  0.27486439  0.70268095  1
  Na  Na162  1  0.34703809  0.77486439  0.20268095  1
  Na  Na163  1  0.34703809  0.77486439  0.70268095  1
  Na  Na164  1  0.84703809  0.27486439  0.20268095  1
  Na  Na165  1  0.84703809  0.27486439  0.70268095  1
  Na  Na166  1  0.84703809  0.77486439  0.20268095  1
  Na  Na167  1  0.84703809  0.77486439  0.70268095  1
  Na  Na168  1  0.34279257  0.02717236  0.20536114  1
  Na  Na169  1  0.34279257  0.02717236  0.70536114  1
  Na  Na170  1  0.34279257  0.52717236  0.20536114  1
  Na  Na171  1  0.34279257  0.52717236  0.70536114  1
  Na  Na172  1  0.84279257  0.02717236  0.20536114  1
  Na  Na173  1  0.84279257  0.02717236  0.70536114  1
  Na  Na174  1  0.84279257  0.52717236  0.20536114  1
  Na  Na175  1  0.84279257  0.52717236  0.70536114  1
  Na  Na176  1  0.09615129  0.27977491  0.20286643  1
  Na  Na177  1  0.09615129  0.27977491  0.70286643  1
  Na  Na178  1  0.09615129  0.77977491  0.20286643  1
  Na  Na179  1  0.09615129  0.77977491  0.70286643  1
  Na  Na180  1  0.59615129  0.27977491  0.20286643  1
  Na  Na181  1  0.59615129  0.27977491  0.70286643  1
  Na  Na182  1  0.59615129  0.77977491  0.20286643  1
  Na  Na183  1  0.59615129  0.77977491  0.70286643  1
  Na  Na184  1  0.12226335  0.05102823  0.19050362  1
  Na  Na185  1  0.12226335  0.05102823  0.69050362  1
  Na  Na186  1  0.12226335  0.55102823  0.19050362  1
  Na  Na187  1  0.12226335  0.55102823  0.69050362  1
  Na  Na188  1  0.62226335  0.05102823  0.19050362  1
  Na  Na189  1  0.62226335  0.05102823  0.69050362  1
  Na  Na190  1  0.62226335  0.55102823  0.19050362  1
  Na  Na191  1  0.62226335  0.55102823  0.69050362  1
  Na  Na192  1  0.27788217  0.47487463  0.45615978  1
  Na  Na193  1  0.27788217  0.47487463  0.95615978  1
  Na  Na194  1  0.27788217  0.97487463  0.45615978  1
  Na  Na195  1  0.27788217  0.97487463  0.95615978  1
  Na  Na196  1  0.77788217  0.47487463  0.45615978  1
  Na  Na197  1  0.77788217  0.47487463  0.95615978  1
  Na  Na198  1  0.77788217  0.97487463  0.45615978  1
  Na  Na199  1  0.77788217  0.97487463  0.95615978  1
  Na  Na200  1  0.27754079  0.21897043  0.46458557  1
  Na  Na201  1  0.27754079  0.21897043  0.96458557  1
  Na  Na202  1  0.27754079  0.71897043  0.46458557  1
  Na  Na203  1  0.27754079  0.71897043  0.96458557  1
  Na  Na204  1  0.77754079  0.21897043  0.46458557  1
  Na  Na205  1  0.77754079  0.21897043  0.96458557  1
  Na  Na206  1  0.77754079  0.71897043  0.46458557  1
  Na  Na207  1  0.77754079  0.71897043  0.96458557  1
  Na  Na208  1  0.02885694  0.47435175  0.45409932  1
  Na  Na209  1  0.02885694  0.47435175  0.95409932  1
  Na  Na210  1  0.02885694  0.97435175  0.45409932  1
  Na  Na211  1  0.02885694  0.97435175  0.95409932  1
  Na  Na212  1  0.52885694  0.47435175  0.45409932  1
  Na  Na213  1  0.52885694  0.47435175  0.95409932  1
  Na  Na214  1  0.52885694  0.97435175  0.45409932  1
  Na  Na215  1  0.52885694  0.97435175  0.95409932  1
  Na  Na216  1  0.02871767  0.22203231  0.45916862  1
  Na  Na217  1  0.02871767  0.22203231  0.95916862  1
  Na  Na218  1  0.02871767  0.72203231  0.45916862  1
  Na  Na219  1  0.02871767  0.72203231  0.95916862  1
  Na  Na220  1  0.52871767  0.22203231  0.45916862  1
  Na  Na221  1  0.52871767  0.22203231  0.95916862  1
  Na  Na222  1  0.52871767  0.72203231  0.45916862  1
  Na  Na223  1  0.52871767  0.72203231  0.95916862  1
  Na  Na224  1  0.40492947  0.40595840  0.04588559  1
  Na  Na225  1  0.40492947  0.40595840  0.54588559  1
  Na  Na226  1  0.40492947  0.90595840  0.04588559  1
  Na  Na227  1  0.40492947  0.90595840  0.54588559  1
  Na  Na228  1  0.90492947  0.40595840  0.04588559  1
  Na  Na229  1  0.90492947  0.40595840  0.54588559  1
  Na  Na230  1  0.90492947  0.90595840  0.04588559  1
  Na  Na231  1  0.90492947  0.90595840  0.54588559  1
  Na  Na232  1  0.40350307  0.15756093  0.03806912  1
  Na  Na233  1  0.40350307  0.15756093  0.53806912  1
  Na  Na234  1  0.40350307  0.65756093  0.03806912  1
  Na  Na235  1  0.40350307  0.65756093  0.53806912  1
  Na  Na236  1  0.90350307  0.15756093  0.03806912  1
  Na  Na237  1  0.90350307  0.15756093  0.53806912  1
  Na  Na238  1  0.90350307  0.65756093  0.03806912  1
  Na  Na239  1  0.90350307  0.65756093  0.53806912  1
  Na  Na240  1  0.15317026  0.40219699  0.03352337  1
  Na  Na241  1  0.15317026  0.40219699  0.53352337  1
  Na  Na242  1  0.15317026  0.90219699  0.03352337  1
  Na  Na243  1  0.15317026  0.90219699  0.53352337  1
  Na  Na244  1  0.65317026  0.40219699  0.03352337  1
  Na  Na245  1  0.65317026  0.40219699  0.53352337  1
  Na  Na246  1  0.65317026  0.90219699  0.03352337  1
  Na  Na247  1  0.65317026  0.90219699  0.53352337  1
  Na  Na248  1  0.15696762  0.15149380  0.04290349  1
  Na  Na249  1  0.15696762  0.15149380  0.54290349  1
  Na  Na250  1  0.15696762  0.65149380  0.04290349  1
  Na  Na251  1  0.15696762  0.65149380  0.54290349  1
  Na  Na252  1  0.65696762  0.15149380  0.04290349  1
  Na  Na253  1  0.65696762  0.15149380  0.54290349  1
  Na  Na254  1  0.65696762  0.65149380  0.04290349  1
  Na  Na255  1  0.65696762  0.65149380  0.54290349  1
  P  P256  1  0.33849456  0.38224930  0.26639696  1
  P  P257  1  0.33849456  0.38224930  0.76639696  1
  P  P258  1  0.33849456  0.88224930  0.26639696  1
  P  P259  1  0.33849456  0.88224930  0.76639696  1
  P  P260  1  0.83849456  0.38224930  0.26639696  1
  P  P261  1  0.83849456  0.38224930  0.76639696  1
  P  P262  1  0.83849456  0.88224930  0.26639696  1
  P  P263  1  0.83849456  0.88224930  0.76639696  1
  P  P264  1  0.34898551  0.13799010  0.26639872  1
  P  P265  1  0.34898551  0.13799010  0.76639872  1
  P  P266  1  0.34898551  0.63799010  0.26639872  1
  P  P267  1  0.34898551  0.63799010  0.76639872  1
  P  P268  1  0.84898551  0.13799010  0.26639872  1
  P  P269  1  0.84898551  0.13799010  0.76639872  1
  P  P270  1  0.84898551  0.63799010  0.26639872  1
  P  P271  1  0.84898551  0.63799010  0.76639872  1
  P  P272  1  0.09298201  0.38915048  0.25992558  1
  P  P273  1  0.09298201  0.38915048  0.75992558  1
  P  P274  1  0.09298201  0.88915048  0.25992558  1
  P  P275  1  0.09298201  0.88915048  0.75992558  1
  P  P276  1  0.59298201  0.38915048  0.25992558  1
  P  P277  1  0.59298201  0.38915048  0.75992558  1
  P  P278  1  0.59298201  0.88915048  0.25992558  1
  P  P279  1  0.59298201  0.88915048  0.75992558  1
  P  P280  1  0.09976406  0.14711013  0.26867322  1
  P  P281  1  0.09976406  0.14711013  0.76867322  1
  P  P282  1  0.09976406  0.64711013  0.26867322  1
  P  P283  1  0.09976406  0.64711013  0.76867322  1
  P  P284  1  0.59976406  0.14711013  0.26867322  1
  P  P285  1  0.59976406  0.14711013  0.76867322  1
  P  P286  1  0.59976406  0.64711013  0.26867322  1
  P  P287  1  0.59976406  0.64711013  0.76867322  1
  P  P288  1  0.44406941  0.46519629  0.27074098  1
  P  P289  1  0.44406941  0.46519629  0.77074098  1
  P  P290  1  0.44406941  0.96519629  0.27074098  1
  P  P291  1  0.44406941  0.96519629  0.77074098  1
  P  P292  1  0.94406941  0.46519629  0.27074098  1
  P  P293  1  0.94406941  0.46519629  0.77074098  1
  P  P294  1  0.94406941  0.96519629  0.27074098  1
  P  P295  1  0.94406941  0.96519629  0.77074098  1
  P  P296  1  0.47089236  0.23532045  0.22914096  1
  P  P297  1  0.47089236  0.23532045  0.72914096  1
  P  P298  1  0.47089236  0.73532045  0.22914096  1
  P  P299  1  0.47089236  0.73532045  0.72914096  1
  P  P300  1  0.97089236  0.23532045  0.22914096  1
  P  P301  1  0.97089236  0.23532045  0.72914096  1
  P  P302  1  0.97089236  0.73532045  0.22914096  1
  P  P303  1  0.97089236  0.73532045  0.72914096  1
  P  P304  1  0.22046522  0.48318860  0.22969685  1
  P  P305  1  0.22046522  0.48318860  0.72969685  1
  P  P306  1  0.22046522  0.98318860  0.22969685  1
  P  P307  1  0.22046522  0.98318860  0.72969685  1
  P  P308  1  0.72046522  0.48318860  0.22969685  1
  P  P309  1  0.72046522  0.48318860  0.72969685  1
  P  P310  1  0.72046522  0.98318860  0.22969685  1
  P  P311  1  0.72046522  0.98318860  0.72969685  1
  P  P312  1  0.22748833  0.23780174  0.23276559  1
  P  P313  1  0.22748833  0.23780174  0.73276559  1
  P  P314  1  0.22748833  0.73780174  0.23276559  1
  P  P315  1  0.22748833  0.73780174  0.73276559  1
  P  P316  1  0.72748833  0.23780174  0.23276559  1
  P  P317  1  0.72748833  0.23780174  0.73276559  1
  P  P318  1  0.72748833  0.73780174  0.23276559  1
  P  P319  1  0.72748833  0.73780174  0.73276559  1
  P  P320  1  0.40368823  0.26841378  0.48175649  1
  P  P321  1  0.40368823  0.26841378  0.98175649  1
  P  P322  1  0.40368823  0.76841378  0.48175649  1
  P  P323  1  0.40368823  0.76841378  0.98175649  1
  P  P324  1  0.90368823  0.26841378  0.48175649  1
  P  P325  1  0.90368823  0.26841378  0.98175649  1
  P  P326  1  0.90368823  0.76841378  0.48175649  1
  P  P327  1  0.90368823  0.76841378  0.98175649  1
  P  P328  1  0.40706702  0.01544577  0.48473272  1
  P  P329  1  0.40706702  0.01544577  0.98473272  1
  P  P330  1  0.40706702  0.51544577  0.48473272  1
  P  P331  1  0.40706702  0.51544577  0.98473272  1
  P  P332  1  0.90706702  0.01544577  0.48473272  1
  P  P333  1  0.90706702  0.01544577  0.98473272  1
  P  P334  1  0.90706702  0.51544577  0.48473272  1
  P  P335  1  0.90706702  0.51544577  0.98473272  1
  P  P336  1  0.15242552  0.26396987  0.48332727  1
  P  P337  1  0.15242552  0.26396987  0.98332727  1
  P  P338  1  0.15242552  0.76396987  0.48332727  1
  P  P339  1  0.15242552  0.76396987  0.98332727  1
  P  P340  1  0.65242552  0.26396987  0.48332727  1
  P  P341  1  0.65242552  0.26396987  0.98332727  1
  P  P342  1  0.65242552  0.76396987  0.48332727  1
  P  P343  1  0.65242552  0.76396987  0.98332727  1
  P  P344  1  0.15559087  0.01594806  0.47525451  1
  P  P345  1  0.15559087  0.01594806  0.97525451  1
  P  P346  1  0.15559087  0.51594806  0.47525451  1
  P  P347  1  0.15559087  0.51594806  0.97525451  1
  P  P348  1  0.65559087  0.01594806  0.47525451  1
  P  P349  1  0.65559087  0.01594806  0.97525451  1
  P  P350  1  0.65559087  0.51594806  0.47525451  1
  P  P351  1  0.65559087  0.51594806  0.97525451  1
  P  P352  1  0.27798894  0.36323533  0.00673013  1
  P  P353  1  0.27798894  0.36323533  0.50673013  1
  P  P354  1  0.27798894  0.86323533  0.00673013  1
  P  P355  1  0.27798894  0.86323533  0.50673013  1
  P  P356  1  0.77798894  0.36323533  0.00673013  1
  P  P357  1  0.77798894  0.36323533  0.50673013  1
  P  P358  1  0.77798894  0.86323533  0.00673013  1
  P  P359  1  0.77798894  0.86323533  0.50673013  1
  P  P360  1  0.28086700  0.10973147  0.01681109  1
  P  P361  1  0.28086700  0.10973147  0.51681109  1
  P  P362  1  0.28086700  0.60973147  0.01681109  1
  P  P363  1  0.28086700  0.60973147  0.51681109  1
  P  P364  1  0.78086700  0.10973147  0.01681109  1
  P  P365  1  0.78086700  0.10973147  0.51681109  1
  P  P366  1  0.78086700  0.60973147  0.01681109  1
  P  P367  1  0.78086700  0.60973147  0.51681109  1
  P  P368  1  0.02900427  0.36350231  0.01350342  1
  P  P369  1  0.02900427  0.36350231  0.51350342  1
  P  P370  1  0.02900427  0.86350231  0.01350342  1
  P  P371  1  0.02900427  0.86350231  0.51350342  1
  P  P372  1  0.52900427  0.36350231  0.01350342  1
  P  P373  1  0.52900427  0.36350231  0.51350342  1
  P  P374  1  0.52900427  0.86350231  0.01350342  1
  P  P375  1  0.52900427  0.86350231  0.51350342  1
  P  P376  1  0.03231792  0.11137503  0.01695417  1
  P  P377  1  0.03231792  0.11137503  0.51695417  1
  P  P378  1  0.03231792  0.61137503  0.01695417  1
  P  P379  1  0.03231792  0.61137503  0.51695417  1
  P  P380  1  0.53231792  0.11137503  0.01695417  1
  P  P381  1  0.53231792  0.11137503  0.51695417  1
  P  P382  1  0.53231792  0.61137503  0.01695417  1
  P  P383  1  0.53231792  0.61137503  0.51695417  1
  P  P384  1  0.40935193  0.40962774  0.19625813  1
  P  P385  1  0.40935193  0.40962774  0.69625813  1
  P  P386  1  0.40935193  0.90962774  0.19625813  1
  P  P387  1  0.40935193  0.90962774  0.69625813  1
  P  P388  1  0.90935193  0.40962774  0.19625813  1
  P  P389  1  0.90935193  0.40962774  0.69625813  1
  P  P390  1  0.90935193  0.90962774  0.19625813  1
  P  P391  1  0.90935193  0.90962774  0.69625813  1
  P  P392  1  0.41455473  0.16725299  0.19039654  1
  P  P393  1  0.41455473  0.16725299  0.69039654  1
  P  P394  1  0.41455473  0.66725299  0.19039654  1
  P  P395  1  0.41455473  0.66725299  0.69039654  1
  P  P396  1  0.91455473  0.16725299  0.19039654  1
  P  P397  1  0.91455473  0.16725299  0.69039654  1
  P  P398  1  0.91455473  0.66725299  0.19039654  1
  P  P399  1  0.91455473  0.66725299  0.69039654  1
  P  P400  1  0.16004460  0.41999712  0.18787530  1
  P  P401  1  0.16004460  0.41999712  0.68787530  1
  P  P402  1  0.16004460  0.91999712  0.18787530  1
  P  P403  1  0.16004460  0.91999712  0.68787530  1
  P  P404  1  0.66004460  0.41999712  0.18787530  1
  P  P405  1  0.66004460  0.41999712  0.68787530  1
  P  P406  1  0.66004460  0.91999712  0.18787530  1
  P  P407  1  0.66004460  0.91999712  0.68787530  1
  P  P408  1  0.16530016  0.17465863  0.19366957  1
  P  P409  1  0.16530016  0.17465863  0.69366957  1
  P  P410  1  0.16530016  0.67465863  0.19366957  1
  P  P411  1  0.16530016  0.67465863  0.69366957  1
  P  P412  1  0.66530016  0.17465863  0.19366957  1
  P  P413  1  0.66530016  0.17465863  0.69366957  1
  P  P414  1  0.66530016  0.67465863  0.19366957  1
  P  P415  1  0.66530016  0.67465863  0.69366957  1
  P  P416  1  0.28641504  0.45356443  0.30304637  1
  P  P417  1  0.28641504  0.45356443  0.80304637  1
  P  P418  1  0.28641504  0.95356443  0.30304637  1
  P  P419  1  0.28641504  0.95356443  0.80304637  1
  P  P420  1  0.78641504  0.45356443  0.30304637  1
  P  P421  1  0.78641504  0.45356443  0.80304637  1
  P  P422  1  0.78641504  0.95356443  0.30304637  1
  P  P423  1  0.78641504  0.95356443  0.80304637  1
  P  P424  1  0.29166775  0.20438798  0.30755760  1
  P  P425  1  0.29166775  0.20438798  0.80755760  1
  P  P426  1  0.29166775  0.70438798  0.30755760  1
  P  P427  1  0.29166775  0.70438798  0.80755760  1
  P  P428  1  0.79166775  0.20438798  0.30755760  1
  P  P429  1  0.79166775  0.20438798  0.80755760  1
  P  P430  1  0.79166775  0.70438798  0.30755760  1
  P  P431  1  0.79166775  0.70438798  0.80755760  1
  P  P432  1  0.04297462  0.45772478  0.30380331  1
  P  P433  1  0.04297462  0.45772478  0.80380331  1
  P  P434  1  0.04297462  0.95772478  0.30380331  1
  P  P435  1  0.04297462  0.95772478  0.80380331  1
  P  P436  1  0.54297462  0.45772478  0.30380331  1
  P  P437  1  0.54297462  0.45772478  0.80380331  1
  P  P438  1  0.54297462  0.95772478  0.30380331  1
  P  P439  1  0.54297462  0.95772478  0.80380331  1
  P  P440  1  0.03888387  0.21239309  0.30619865  1
  P  P441  1  0.03888387  0.21239309  0.80619865  1
  P  P442  1  0.03888387  0.71239309  0.30619865  1
  P  P443  1  0.03888387  0.71239309  0.80619865  1
  P  P444  1  0.53888387  0.21239309  0.30619865  1
  P  P445  1  0.53888387  0.21239309  0.80619865  1
  P  P446  1  0.53888387  0.71239309  0.30619865  1
  P  P447  1  0.53888387  0.71239309  0.80619865  1
  P  P448  1  0.33589094  0.30026112  0.05333442  1
  P  P449  1  0.33589094  0.30026112  0.55333442  1
  P  P450  1  0.33589094  0.80026112  0.05333442  1
  P  P451  1  0.33589094  0.80026112  0.55333442  1
  P  P452  1  0.83589094  0.30026112  0.05333442  1
  P  P453  1  0.83589094  0.30026112  0.55333442  1
  P  P454  1  0.83589094  0.80026112  0.05333442  1
  P  P455  1  0.83589094  0.80026112  0.55333442  1
  P  P456  1  0.34005233  0.04461439  0.05781187  1
  P  P457  1  0.34005233  0.04461439  0.55781187  1
  P  P458  1  0.34005233  0.54461439  0.05781187  1
  P  P459  1  0.34005233  0.54461439  0.55781187  1
  P  P460  1  0.84005233  0.04461439  0.05781187  1
  P  P461  1  0.84005233  0.04461439  0.55781187  1
  P  P462  1  0.84005233  0.54461439  0.05781187  1
  P  P463  1  0.84005233  0.54461439  0.55781187  1
  P  P464  1  0.08569039  0.29713650  0.05555138  1
  P  P465  1  0.08569039  0.29713650  0.55555138  1
  P  P466  1  0.08569039  0.79713650  0.05555138  1
  P  P467  1  0.08569039  0.79713650  0.55555138  1
  P  P468  1  0.58569039  0.29713650  0.05555138  1
  P  P469  1  0.58569039  0.29713650  0.55555138  1
  P  P470  1  0.58569039  0.79713650  0.05555138  1
  P  P471  1  0.58569039  0.79713650  0.55555138  1
  P  P472  1  0.09103412  0.04362440  0.05236225  1
  P  P473  1  0.09103412  0.04362440  0.55236225  1
  P  P474  1  0.09103412  0.54362440  0.05236225  1
  P  P475  1  0.09103412  0.54362440  0.55236225  1
  P  P476  1  0.59103412  0.04362440  0.05236225  1
  P  P477  1  0.59103412  0.04362440  0.55236225  1
  P  P478  1  0.59103412  0.54362440  0.05236225  1
  P  P479  1  0.59103412  0.54362440  0.55236225  1
  P  P480  1  0.46149232  0.33352764  0.43993755  1
  P  P481  1  0.46149232  0.33352764  0.93993755  1
  P  P482  1  0.46149232  0.83352764  0.43993755  1
  P  P483  1  0.46149232  0.83352764  0.93993755  1
  P  P484  1  0.96149232  0.33352764  0.43993755  1
  P  P485  1  0.96149232  0.33352764  0.93993755  1
  P  P486  1  0.96149232  0.83352764  0.43993755  1
  P  P487  1  0.96149232  0.83352764  0.93993755  1
  P  P488  1  0.46463507  0.08208473  0.44410938  1
  P  P489  1  0.46463507  0.08208473  0.94410938  1
  P  P490  1  0.46463507  0.58208473  0.44410938  1
  P  P491  1  0.46463507  0.58208473  0.94410938  1
  P  P492  1  0.96463507  0.08208473  0.44410938  1
  P  P493  1  0.96463507  0.08208473  0.94410938  1
  P  P494  1  0.96463507  0.58208473  0.44410938  1
  P  P495  1  0.96463507  0.58208473  0.94410938  1
  P  P496  1  0.20985045  0.32777099  0.43684849  1
  P  P497  1  0.20985045  0.32777099  0.93684849  1
  P  P498  1  0.20985045  0.82777099  0.43684849  1
  P  P499  1  0.20985045  0.82777099  0.93684849  1
  P  P500  1  0.70985045  0.32777099  0.43684849  1
  P  P501  1  0.70985045  0.32777099  0.93684849  1
  P  P502  1  0.70985045  0.82777099  0.43684849  1
  P  P503  1  0.70985045  0.82777099  0.93684849  1
  P  P504  1  0.21632750  0.08231068  0.43943365  1
  P  P505  1  0.21632750  0.08231068  0.93943365  1
  P  P506  1  0.21632750  0.58231068  0.43943365  1
  P  P507  1  0.21632750  0.58231068  0.93943365  1
  P  P508  1  0.71632750  0.08231068  0.43943365  1
  P  P509  1  0.71632750  0.08231068  0.93943365  1
  P  P510  1  0.71632750  0.58231068  0.43943365  1
  P  P511  1  0.71632750  0.58231068  0.93943365  1
  P  P512  1  0.01175554  0.51866460  0.23211733  1
  P  P513  1  0.01175554  0.51866460  0.73211733  1
  P  P514  1  0.01175554  0.01866460  0.23211733  1
  P  P515  1  0.01175554  0.01866460  0.73211733  1
  P  P516  1  0.51175554  0.51866460  0.23211733  1
  P  P517  1  0.51175554  0.51866460  0.73211733  1
  P  P518  1  0.51175554  0.01866460  0.23211733  1
  P  P519  1  0.51175554  0.01866460  0.73211733  1
